test/test_files/validation_tests/case118_resqlim.m
function mpc = case118_resqlim
%CASE118_RESQLIM

%% MATPOWER Case Format : Version 2
mpc.version = '2';

%%-----  Power Flow Data  -----%%
%% system MVA base
mpc.baseMVA = 100;

%% bus data
%    bus_i    type    Pd    Qd    Gs    Bs    area    Vm    Va    baseKV    zone    Vmax    Vmin
mpc.bus = [
    1    2    51    27    0    0    1    0.955    10.982262    138    1    1.06    0.94;
    2    1    20    9    0    0    1    0.971392757    11.5222881    138    1    1.06    0.94;
    3    1    39    10    0    0    1    0.967691866    11.8656205    138    1    1.06    0.94;
    4    2    39    12    0    0    1    0.998    15.583092    138    1    1.06    0.94;
    5    1    0    0    0    -40    1    1.00198433    16.0281038    138    1    1.06    0.94;
    6    2    52    22    0    0    1    0.99    13.3012623    138    1    1.06    0.94;
    7    1    19    2    0    0    1    0.989327854    12.8569097    138    1    1.06    0.94;
    8    2    28    0    0    0    1    1.015    21.0486444    345    1    1.06    0.94;
    9    1    0    0    0    0    1    1.04291821    28.3027494    345    1    1.06    0.94;
    10    2    0    0    0    0    1    1.05    35.8836586    345    1    1.06    0.94;
    11    1    70    23    0    0    1    0.985088866    13.0155277    138    1    1.06    0.94;
    12    2    47    10    0    0    1    0.99    12.4987827    138    1    1.06    0.94;
    13    1    34    16    0    0    1    0.968302693    11.6406122    138    1    1.06    0.94;
    14    1    14    1    0    0    1    0.983591295    11.7826006    138    1    1.06    0.94;
    15    2    90    30    0    0    1    0.97    11.4888678    138    1    1.06    0.94;
    16    1    25    10    0    0    1    0.983911189    12.1972365    138    1    1.06    0.94;
    17    1    11    3    0    0    1    0.995131679    14.0050717    138    1    1.06    0.94;
    18    2    60    34    0    0    1    0.973    11.7914213    138    1    1.06    0.94;
    19    1    45    25    0    0    1    0.963425896    11.3068247    138    1    1.06    0.94;
    20    1    18    3    0    0    1    0.958059276    12.1866512    138    1    1.06    0.94;
    21    1    14    8    0    0    1    0.958623419    13.7745764    138    1    1.06    0.94;
    22    1    10    5    0    0    1    0.969648674    16.3290728    138    1    1.06    0.94;
    23    1    7    3    0    0    1    0.99965591    21.2498128    138    1    1.06    0.94;
    24    2    13    0    0    0    1    0.992    21.1175464    138    1    1.06    0.94;
    25    2    0    0    0    0    1    1.05    28.1838885    138    1    1.06    0.94;
    26    2    0    0    0    0    1    1.015    29.9644459    345    1    1.06    0.94;
    27    2    71    13    0    0    1    0.968    15.6120987    138    1    1.06    0.94;
    28    1    17    7    0    0    1    0.961568173    13.8874869    138    1    1.06    0.94;
    29    1    24    4    0    0    1    0.963216097    12.8951006    138    1    1.06    0.94;
    30    1    0    0    0    0    1    0.985519147    19.0395769    345    1    1.06    0.94;
    31    2    43    27    0    0    1    0.967    13.0119587    138    1    1.06    0.94;
    32    1    59    23    0    0    1    0.963588699    15.0594763    138    1    1.06    0.94;
    33    1    23    9    0    0    1    0.971560388    10.8639211    138    1    1.06    0.94;
    34    1    59    26    0    14    1    0.985861765    11.5059366    138    1    1.06    0.94;
    35    1    33    9    0    0    1    0.980678607    11.0787438    138    1    1.06    0.94;
    36    2    31    17    0    0    1    0.98    11.0831806    138    1    1.06    0.94;
    37    1    0    0    0    -25    1    0.991981825    11.9697014    138    1    1.06    0.94;
    38    1    0    0    0    0    1    0.961984445    17.1066282    345    1    1.06    0.94;
    39    1    27    11    0    0    1    0.970452339    8.59722959    138    1    1.06    0.94;
    40    2    66    23    0    0    1    0.97    7.52339544    138    1    1.06    0.94;
    41    1    37    10    0    0    1    0.966833151    7.0773207    138    1    1.06    0.94;
    42    2    96    23    0    0    1    0.985    8.67285883    138    1    1.06    0.94;
    43    1    18    7    0    0    1    0.978481368    11.4598549    138    1    1.06    0.94;
    44    1    16    8    0    10    1    0.985008448    13.9454955    138    1    1.06    0.94;
    45    1    53    22    0    10    1    0.986654299    15.776229    138    1    1.06    0.94;
    46    2    28    10    0    10    1    1.005    18.5821546    138    1    1.06    0.94;
    47    1    34    0    0    0    1    1.01705406    20.8046083    138    1    1.06    0.94;
    48    1    20    11    0    15    1    1.02063341    20.0247951    138    1    1.06    0.94;
    49    2    87    30    0    0    1    1.025    21.0278709    138    1    1.06    0.94;
    50    1    17    4    0    0    1    1.00108232    18.9888149    138    1    1.06    0.94;
    51    1    17    8    0    0    1    0.966875903    16.3697658    138    1    1.06    0.94;
    52    1    18    5    0    0    1    0.956817144    15.4163353    138    1    1.06    0.94;
    53    1    23    11    0    0    1    0.945982473    14.4413632    138    1    1.06    0.94;
    54    2    113    32    0    0    1    0.955    15.3530692    138    1    1.06    0.94;
    55    2    63    22    0    0    1    0.952    15.0631395    138    1    1.06    0.94;
    56    2    84    18    0    0    1    0.954    15.249846    138    1    1.06    0.94;
    57    1    12    3    0    0    1    0.970582079    16.4546296    138    1    1.06    0.94;
    58    1    12    3    0    0    1    0.959038169    15.5978095    138    1    1.06    0.94;
    59    2    277    113    0    0    1    0.985    19.4523965    138    1    1.06    0.94;
    60    1    78    3    0    0    1    0.993156274    23.2336863    138    1    1.06    0.94;
    61    2    0    0    0    0    1    0.995    24.1250014    138    1    1.06    0.94;
    62    2    77    14    0    0    1    0.998    23.5084706    138    1    1.06    0.94;
    63    1    0    0    0    0    1    0.968737932    22.8309093    345    1    1.06    0.94;
    64    1    0    0    0    0    1    0.983739329    24.5966262    345    1    1.06    0.94;
    65    2    0    0    0    0    1    1.005    27.7217396    345    1    1.06    0.94;
    66    2    39    18    0    0    1    1.05    27.5627868    138    1    1.06    0.94;
    67    1    28    7    0    0    1    1.01968161    24.922861    138    1    1.06    0.94;
    68    1    0    0    0    0    1    1.00324937    27.6005928    345    1    1.06    0.94;
    69    3    0    0    0    0    1    1.035    30    138    1    1.06    0.94;
    70    2    66    20    0    0    1    0.984    22.6199904    138    1    1.06    0.94;
    71    1    0    0    0    0    1    0.986844559    22.2091121    138    1    1.06    0.94;
    72    2    12    0    0    0    1    0.98    21.1114772    138    1    1.06    0.94;
    73    2    6    0    0    0    1    0.991    21.9976191    138    1    1.06    0.94;
    74    2    68    27    0    12    1    0.958    21.6711583    138    1    1.06    0.94;
    75    1    47    11    0    0    1    0.967332722    22.9329549    138    1    1.06    0.94;
    76    2    68    36    0    0    1    0.943    21.802995    138    1    1.06    0.94;
    77    2    61    28    0    0    1    1.006    26.756891    138    1    1.06    0.94;
    78    1    71    26    0    0    1    1.00342383    26.453032    138    1    1.06    0.94;
    79    1    39    32    0    20    1    1.00922298    26.7521736    138    1    1.06    0.94;
    80    2    130    26    0    0    1    1.04    28.9976898    138    1    1.06    0.94;
    81    1    0    0    0    0    1    0.996807843    28.1494863    345    1    1.06    0.94;
    82    1    54    27    0    20    1    0.988742476    27.2772822    138    1    1.06    0.94;
    83    1    20    10    0    10    1    0.984519918    28.4673725    138    1    1.06    0.94;
    84    1    11    7    0    0    1    0.97975187    31.0008275    138    1    1.06    0.94;
    85    2    24    15    0    0    1    0.985    32.554891    138    1    1.06    0.94;
    86    1    21    10    0    0    1    0.986690746    31.1854423    138    1    1.06    0.94;
    87    2    0    0    0    0    1    1.015    31.4446547    161    1    1.06    0.94;
    88    1    48    10    0    0    1    0.987456606    35.6859097    138    1    1.06    0.94;
    89    2    0    0    0    0    1    1.005    39.7413548    138    1    1.06    0.94;
    90    2    163    42    0    0    1    0.985    33.336517    138    1    1.06    0.94;
    91    2    10    0    0    0    1    0.98    33.3554859    138    1    1.06    0.94;
    92    1    65    10    0    0    1    0.992277972    33.8544579    138    1    1.06    0.94;
    93    1    12    7    0    0    1    0.9869066    30.8434488    138    1    1.06    0.94;
    94    1    30    16    0    0    1    0.99057398    28.6894705    138    1    1.06    0.94;
    95    1    42    31    0    0    1    0.980925343    27.7176892    138    1    1.06    0.94;
    96    1    38    15    0    0    1    0.992671119    27.5504197    138    1    1.06    0.94;
    97    1    15    9    0    0    1    1.01136695    27.9235591    138    1    1.06    0.94;
    98    1    34    8    0    0    1    1.02350948    27.4461476    138    1    1.06    0.94;
    99    2    42    0    0    0    1    1.01    27.0843369    138    1    1.06    0.94;
    100    2    37    18    0    0    1    1.017    28.080413    138    1    1.06    0.94;
    101    1    22    15    0    0    1    0.992435958    29.6532147    138    1    1.06    0.94;
    102    1    5    3    0    0    1    0.991001601    32.3510791    138    1    1.06    0.94;
    103    1    23    16    0    0    1    1.00070882    24.4854498    138    1    1.06    0.94;
    104    2    38    25    0    0    1    0.971    21.7404678    138    1    1.06    0.94;
    105    1    31    26    0    20    1    0.965990191    20.61837    138    1    1.06    0.94;
    106    1    43    16    0    0    1    0.961787406    20.3705487    138    1    1.06    0.94;
    107    2    50    12    0    6    1    0.952    17.5804289    138    1    1.06    0.94;
    108    1    2    1    0    0    1    0.966810328    19.4274614    138    1    1.06    0.94;
    109    1    8    3    0    0    1    0.967461486    18.9782388    138    1    1.06    0.94;
    110    2    39    30    0    6    1    0.973    18.1393895    138    1    1.06    0.94;
    111    2    0    0    0    0    1    0.98    19.7844704    138    1    1.06    0.94;
    112    2    68    13    0    0    1    0.975    15.0401719    138    1    1.06    0.94;
    113    2    6    0    0    0    1    0.993    14.0031302    138    1    1.06    0.94;
    114    1    8    3    0    0    1    0.960436316    14.7292462    138    1    1.06    0.94;
    115    1    22    7    0    0    1    0.960324114    14.7216014    138    1    1.06    0.94;
    116    2    184    0    0    0    1    1.005    27.1656043    138    1    1.06    0.94;
    117    1    20    8    0    0    1    0.973824447    10.9577823    138    1    1.06    0.94;
    118    1    33    15    0    0    1    0.9494381    21.945289    138    1    1.06    0.94;
];

%% generator data
%    bus    Pg    Qg    Qmax    Qmin    Vg    mBase    status    Pmax    Pmin    Pc1    Pc2    Qc1min    Qc1max    Qc2min    Qc2max    ramp_agc    ramp_10    ramp_30    ramp_q    apf
mpc.gen = [
    1    0    -3.1039078    15    -5    0.955    100    1    100    0    0    0    0    0    0    0    0    0    0    0    0;
    4    0    -15.0057973    300    -300    0.998    100    1    100    0    0    0    0    0    0    0    0    0    0    0    0;
    6    0    15.9296672    50    -13    0.99    100    1    100    0    0    0    0    0    0    0    0    0    0    0    0;
    8    0    62.7568145    300    -300    1.015    100    1    100    0    0    0    0    0    0    0    0    0    0    0    0;
    10    450    -51.0421516    200    -147    1.05    100    1    550    0    0    0    0    0    0    0    0    0    0    0    0;
    12    85    91.2735766    120    -35    0.99    100    1    185    0    0    0    0    0    0    0    0    0    0    0    0;
    15    0    3.06101825    30    -10    0.97    100    1    100    0    0    0    0    0    0    0    0    0    0    0    0;
    18    0    25.533189    50    -16    0.973    100    1    100    0    0    0    0    0    0    0    0    0    0    0    0;
    19    0    -8    24    -8    0.962    100    1    100    0    0    0    0    0    0    0    0    0    0    0    0;
    24    0    -15.2822659    300    -300    0.992    100    1    100    0    0    0    0    0    0    0    0    0    0    0    0;
    25    220    49.7980611    140    -47    1.05    100    1    320    0    0    0    0    0    0    0    0    0    0    0    0;
    26    314    9.90376946    1000    -1000    1.015    100    1    414    0    0    0    0    0    0    0    0    0    0    0    0;
    27    0    2.83146778    300    -300    0.968    100    1    100    0    0    0    0    0    0    0    0    0    0    0    0;
    31    7    31.9754062    300    -300    0.967    100    1    107    0    0    0    0    0    0    0    0    0    0    0    0;
    32    0    -14    42    -14    0.963    100    1    100    0    0    0    0    0    0    0    0    0    0    0    0;
    34    0    -8    24    -8    0.984    100    1    100    0    0    0    0    0    0    0    0    0    0    0    0;
    36    0    -1.25365276    24    -8    0.98    100    1    100    0    0    0    0    0    0    0    0    0    0    0    0;
    40    0    26.8854385    300    -300    0.97    100    1    100    0    0    0    0    0    0    0    0    0    0    0    0;
    42    0    41.0044913    300    -300    0.985    100    1    100    0    0    0    0    0    0    0    0    0    0    0    0;
    46    19    -5.23129134    100    -100    1.005    100    1    119    0    0    0    0    0    0    0    0    0    0    0    0;
    49    204    115.647941    210    -85    1.025    100    1    304    0    0    0    0    0    0    0    0    0    0    0    0;
    54    48    3.90252727    300    -300    0.955    100    1    148    0    0    0    0    0    0    0    0    0    0    0    0;
    55    0    4.66418579    23    -8    0.952    100    1    100    0    0    0    0    0    0    0    0    0    0    0    0;
    56    0    -2.28560077    15    -8    0.954    100    1    100    0    0    0    0    0    0    0    0    0    0    0    0;
    59    155    76.8332026    180    -60    0.985    100    1    255    0    0    0    0    0    0    0    0    0    0    0    0;
    61    160    -40.3942201    300    -100    0.995    100    1    260    0    0    0    0    0    0    0    0    0    0    0    0;
    62    0    1.25879747    20    -20    0.998    100    1    100    0    0    0    0    0    0    0    0    0    0    0    0;
    65    391    80.809877    200    -67    1.005    100    1    491    0    0    0    0    0    0    0    0    0    0    0    0;
    66    392    -1.95103851    200    -67    1.05    100    1    492    0    0    0    0    0    0    0    0    0    0    0    0;
    69    513.480749    -82.3862297    300    -300    1.035    100    1    805.2    0    0    0    0    0    0    0    0    0    0    0    0;
    70    0    9.66405243    32    -10    0.984    100    1    100    0    0    0    0    0    0    0    0    0    0    0    0;
    72    0    -11.1301916    100    -100    0.98    100    1    100    0    0    0    0    0    0    0    0    0    0    0    0;
    73    0    9.65129959    100    -100    0.991    100    1    100    0    0    0    0    0    0    0    0    0    0    0    0;
    74    0    -5.62716174    9    -6    0.958    100    1    100    0    0    0    0    0    0    0    0    0    0    0    0;
    76    0    5.26900702    23    -8    0.943    100    1    100    0    0    0    0    0    0    0    0    0    0    0    0;
    77    0    11.9410652    70    -20    1.006    100    1    100    0    0    0    0    0    0    0    0    0    0    0    0;
    80    477    105.042954    280    -165    1.04    100    1    577    0    0    0    0    0    0    0    0    0    0    0    0;
    85    0    -5.7694902    23    -8    0.985    100    1    100    0    0    0    0    0    0    0    0    0    0    0    0;
    87    4    11.0216074    1000    -100    1.015    100    1    104    0    0    0    0    0    0    0    0    0    0    0    0;
    89    607    -11.7937506    300    -210    1.005    100    1    707    0    0    0    0    0    0    0    0    0    0    0    0;
    90    0    59.299743    300    -300    0.985    100    1    100    0    0    0    0    0    0    0    0    0    0    0    0;
    91    0    -14.8466379    100    -100    0.98    100    1    100    0    0    0    0    0    0    0    0    0    0    0    0;
    92    0    -3    9    -3    0.99    100    1    100    0    0    0    0    0    0    0    0    0    0    0    0;
    99    0    -17.5369379    100    -100    1.01    100    1    100    0    0    0    0    0    0    0    0    0    0    0    0;
    100    252    110.079243    155    -50    1.017    100    1    352    0    0    0    0    0    0    0    0    0    0    0    0;
    103    40    40    40    -15    1.01    100    1    140    0    0    0    0    0    0    0    0    0    0    0    0;
    104    0    5.65191308    23    -8    0.971    100    1    100    0    0    0    0    0    0    0    0    0    0    0    0;
    105    0    -8    23    -8    0.965    100    1    100    0    0    0    0    0    0    0    0    0    0    0    0;
    107    0    5.69509732    200    -200    0.952    100    1    100    0    0    0    0    0    0    0    0    0    0    0    0;
    110    0    4.86049375    23    -8    0.973    100    1    100    0    0    0    0    0    0    0    0    0    0    0    0;
    111    36    -1.84382478    1000    -100    0.98    100    1    136    0    0    0    0    0    0    0    0    0    0    0    0;
    112    0    41.5116934    1000    -100    0.975    100    1    100    0    0    0    0    0    0    0    0    0    0    0    0;
    113    0    6.32057674    200    -100    0.993    100    1    100    0    0    0    0    0    0    0    0    0    0    0    0;
    116    0    51.3237358    1000    -1000    1.005    100    1    100    0    0    0    0    0    0    0    0    0    0    0    0;
];

%% branch data
%    fbus    tbus    r    x    b    rateA    rateB    rateC    ratio    angle    status    angmin    angmax    Pf    Qf    Pt    Qt
mpc.branch = [
    1    2    0.0303    0.0999    0.0254    0    0    0    0    0    1    -360    360    -12.3560    -13.0402    12.4537    11.0054;
    1    3    0.0129    0.0424    0.01082    0    0    0    0    0    1    -360    360    -38.6440    -17.0638    38.8940    16.8857;
    4    5    0.00176    0.00798    0.0021    0    0    0    0    0    1    -360    360    -103.2129    -26.7920    103.4137    27.4925;
    3    5    0.0241    0.108    0.0284    0    0    0    0    0    1    -360    360    -68.1030    -14.4909    69.3413    17.2844;
    5    6    0.0119    0.054    0.01426    0    0    0    0    0    1    -360    360    88.4559    4.1084    -87.5257    -1.3020;
    6    7    0.00459    0.0208    0.0055    0    0    0    0    0    1    -360    360    35.5257    -4.7683    -35.4657    4.5018;
    8    9    0.00244    0.0305    1.162    0    0    0    0    0    1    -360    360    -440.6350    -89.7336    445.2546    24.4289;
    8    5    0    0.0267    0    0    0    0    0.985    0    1    -360    360    338.4164    124.7229    -338.4164    -92.0139;
    9    10    0.00258    0.0322    1.23    0    0    0    0    0    1    -360    360    -445.2546    -24.4289    450.0000    -51.0422;
    4    11    0.0209    0.0688    0.01748    0    0    0    0    0    1    -360    360    64.2129    -0.2138    -63.3476    1.3437;
    5    11    0.0203    0.0682    0.01738    0    0    0    0    0    1    -360    360    77.2055    2.9697    -75.9973    -0.6263;
    11    12    0.00595    0.0196    0.00502    0    0    0    0    0    1    -360    360    34.2837    -35.1319    -34.1370    35.1256;
    2    12    0.0187    0.0616    0.01572    0    0    0    0    0    1    -360    360    -32.4537    -20.0054    32.7359    19.4232;
    3    12    0.0484    0.16    0.0406    0    0    0    0    0    1    -360    360    -9.7910    -12.3947    9.8974    8.8561;
    7    12    0.00862    0.034    0.00874    0    0    0    0    0    1    -360    360    16.4657    -6.5018    -16.4385    5.7528;
    11    13    0.02225    0.0731    0.01876    0    0    0    0    0    1    -360    360    35.0612    11.4145    -34.7445    -12.1638;
    12    14    0.0215    0.0707    0.01816    0    0    0    0    0    1    -360    360    18.2862    2.6308    -18.2101    -4.1490;
    13    15    0.0744    0.2444    0.06268    0    0    0    0    0    1    -360    360    0.7445    -3.8362    -0.7434    -2.0475;
    14    15    0.0595    0.195    0.0502    0    0    0    0    0    1    -360    360    4.2101    3.1490    -4.1801    -7.8406;
    12    16    0.0212    0.0834    0.0214    0    0    0    0    0    1    -360    360    7.5034    4.2879    -7.4851    -6.3003;
    15    17    0.0132    0.0437    0.0444    0    0    0    0    0    1    -360    360    -103.7175    -24.4145    105.2966    25.3550;
    16    17    0.0454    0.1801    0.0466    0    0    0    0    0    1    -360    360    -17.5149    -3.6997    17.6598    -0.2887;
    17    18    0.0123    0.0505    0.01298    0    0    0    0    0    1    -360    360    80.2684    24.8494    -79.3874    -22.4895;
    18    19    0.01119    0.0493    0.01142    0    0    0    0    0    1    -360    360    19.3874    14.0227    -19.3179    -14.7871;
    19    20    0.0252    0.117    0.0298    0    0    0    0    0    1    -360    360    -10.6480    5.4225    10.6914    -7.9719;
    15    19    0.012    0.0394    0.0101    0    0    0    0    0    1    -360    360    11.4107    12.2465    -11.3734    -13.0681;
    20    21    0.0183    0.0849    0.0216    0    0    0    0    0    1    -360    360    -28.6914    4.9719    28.8626    -6.1613;
    21    22    0.0209    0.097    0.0246    0    0    0    0    0    1    -360    360    -42.8626    -1.8387    43.2806    1.4917;
    22    23    0.0342    0.159    0.0404    0    0    0    0    0    1    -360    360    -53.2806    -6.4917    54.3208    7.4102;
    23    24    0.0135    0.0492    0.0498    0    0    0    0    0    1    -360    360    8.2979    10.7957    -8.2647    -15.6135;
    23    25    0.0156    0.08    0.0864    0    0    0    0    0    1    -360    360    -162.6124    -25.9194    166.8132    38.3819;
    26    25    0    0.0382    0    0    0    0    0.96    0    1    -360    360    90.2993    21.5849    -90.2993    -18.6393;
    25    27    0.0318    0.163    0.1764    0    0    0    0    0    1    -360    360    143.4861    30.0555    -137.0912    -15.2657;
    27    28    0.01913    0.0855    0.0216    0    0    0    0    0    1    -360    360    32.8584    -0.5888    -32.6379    -0.4365;
    28    29    0.0237    0.0943    0.0238    0    0    0    0    0    1    -360    360    15.6379    -6.5635    -15.5676    4.6390;
    30    17    0    0.0388    0    0    0    0    0.96    0    1    -360    360    231.0563    93.3713    -231.0563    -70.5062;
    8    30    0.00431    0.0504    0.514    0    0    0    0    0    1    -360    360    74.2186    27.7675    -73.8650    -75.0711;
    26    30    0.00799    0.086    0.908    0    0    0    0    0    1    -360    360    223.7007    -11.6812    -219.7242    -36.3843;
    17    31    0.0474    0.1563    0.0399    0    0    0    0    0    1    -360    360    14.7721    11.5479    -14.5801    -14.7560;
    29    31    0.0108    0.0331    0.0083    0    0    0    0    0    1    -360    360    -8.4324    -8.6390    8.4486    7.9156;
    23    32    0.0317    0.1153    0.1173    0    0    0    0    0    1    -360    360    92.9937    4.7135    -90.2150    -5.9133;
    31    32    0.0298    0.0985    0.0251    0    0    0    0    0    1    -360    360    -29.8685    11.8158    30.2066    -13.0371;
    27    32    0.0229    0.0755    0.01926    0    0    0    0    0    1    -360    360    12.4987    1.0199    -12.4597    -2.6876;
    15    33    0.038    0.1244    0.03194    0    0    0    0    0    1    -360    360    7.2303    -4.8829    -7.2046    1.9570;
    19    34    0.0752    0.247    0.0632    0    0    0    0    0    1    -360    360    -3.6606    -10.5674    3.7187    4.7538;
    35    36    0.00224    0.0102    0.00268    0    0    0    0    0    1    -360    360    0.6708    6.2483    -0.6699    -6.5015;
    35    37    0.011    0.0497    0.01318    0    0    0    0    0    1    -360    360    -33.6708    -15.2483    33.8249    14.6623;
    33    37    0.0415    0.142    0.0366    0    0    0    0    0    1    -360    360    -15.7954    -10.9570    15.9425    7.9323;
    34    36    0.00871    0.0268    0.00568    0    0    0    0    0    1    -360    360    30.4255    11.4968    -30.3301    -11.7521;
    34    37    0.00256    0.0094    0.00984    0    0    0    0    0    1    -360    360    -94.5824    -38.5653    94.8562    38.6085;
    38    37    0    0.0375    0    0    0    0    0.935    0    1    -360    360    243.6844    112.1122    -243.6844    -86.6230;
    37    39    0.0321    0.106    0.027    0    0    0    0    0    1    -360    360    54.9626    3.7480    -53.9687    -3.0660;
    37    40    0.0593    0.168    0.042    0    0    0    0    0    1    -360    360    44.0981    -2.9288    -42.9257    2.2077;
    30    38    0.00464    0.054    0.422    0    0    0    0    0    1    -360    360    62.5329    18.0841    -62.2750    -55.1022;
    39    40    0.0184    0.0605    0.01552    0    0    0    0    0    1    -360    360    26.9687    -7.9340    -26.8165    6.9736;
    40    41    0.0145    0.0487    0.01222    0    0    0    0    0    1    -360    360    15.5128    1.1724    -15.4752    -2.1923;
    40    42    0.0555    0.183    0.0466    0    0    0    0    0    1    -360    360    -11.7705    -6.4683    11.8630    2.3204;
    41    42    0.041    0.135    0.0344    0    0    0    0    0    1    -360    360    -21.5248    -7.8077    21.7449    5.2558;
    43    44    0.0608    0.2454    0.06068    0    0    0    0    0    1    -360    360    -16.5694    -1.0326    16.7460    -4.1032;
    34    43    0.0413    0.1681    0.04226    0    0    0    0    0    1    -360    360    1.4382    1.9216    -1.4306    -5.9674;
    44    45    0.0224    0.0901    0.0224    0    0    0    0    0    1    -360    360    -32.7460    5.8057    33.0045    -6.9427;
    45    46    0.04    0.1356    0.0332    0    0    0    0    0    1    -360    360    -36.3163    -3.3752    36.8595    1.9240;
    46    47    0.038    0.127    0.0316    0    0    0    0    0    1    -360    360    -31.0997    -1.2239    31.4636    -0.7900;
    46    48    0.0601    0.189    0.0472    0    0    0    0    0    1    -360    360    -14.7598    -5.8312    14.8965    1.4190;
    47    49    0.0191    0.0625    0.01604    0    0    0    0    0    1    -360    360    -9.5548    -10.8273    9.5901    9.2707;
    42    49    0.0715    0.323    0.086    0    0    0    0    0    1    -360    360    -64.8040    5.2141    67.9637    0.3703;
    42    49    0.0715    0.323    0.086    0    0    0    0    0    1    -360    360    -64.8040    5.2141    67.9637    0.3703;
    45    49    0.0684    0.186    0.0444    0    0    0    0    0    1    -360    360    -49.6882    -1.9472    51.4229    2.1710;
    48    49    0.0179    0.0505    0.01258    0    0    0    0    0    1    -360    360    -34.8965    3.2064    35.1083    -3.9249;
    49    50    0.0267    0.0752    0.01874    0    0    0    0    0    1    -360    360    53.6665    13.4257    -52.8818    -13.1390;
    49    51    0.0486    0.137    0.0342    0    0    0    0    0    1    -360    360    66.6353    20.4413    -64.3525    -17.4016;
    51    52    0.0203    0.0588    0.01396    0    0    0    0    0    1    -360    360    28.5612    6.2450    -28.3738    -6.9935;
    52    53    0.0405    0.1635    0.04058    0    0    0    0    0    1    -360    360    10.3738    1.9935    -10.3196    -5.4481;
    53    54    0.0263    0.122    0.031    0    0    0    0    0    1    -360    360    -12.6804    -5.5519    12.7328    2.9941;
    49    54    0.073    0.289    0.0738    0    0    0    0    0    1    -360    360    37.7729    13.0689    -36.5820    -15.5965;
    49    54    0.0869    0.291    0.073    0    0    0    0    0    1    -360    360    37.7511    11.1967    -36.3854    -13.7872;
    54    55    0.0169    0.0707    0.0202    0    0    0    0    0    1    -360    360    7.0754    1.4564    -7.0651    -3.2497;
    54    56    0.00275    0.00955    0.00732    0    0    0    0    0    1    -360    360    18.5343    4.3446    -18.5233    -4.9732;
    55    56    0.00488    0.0151    0.00374    0    0    0    0    0    1    -360    360    -21.4263    -5.8223    21.4528    5.5644;
    56    57    0.0343    0.0966    0.0242    0    0    0    0    0    1    -360    360    -22.9943    -9.1008    23.2177    7.4888;
    50    57    0.0474    0.134    0.0332    0    0    0    0    0    1    -360    360    35.8818    9.1390    -35.2177    -10.4888;
    56    58    0.0343    0.0966    0.0242    0    0    0    0    0    1    -360    360    -6.6713    -3.6905    6.6906    1.5308;
    51    58    0.0255    0.0719    0.01788    0    0    0    0    0    1    -360    360    18.7913    3.1566    -18.6906    -4.5308;
    54    59    0.0503    0.2293    0.0598    0    0    0    0    0    1    -360    360    -30.3751    -7.5088    30.8966    4.2580;
    56    59    0.0825    0.251    0.0569    0    0    0    0    0    1    -360    360    -27.9570    -4.1761    28.6678    0.9890;
    56    59    0.0803    0.239    0.0536    0    0    0    0    0    1    -360    360    -29.3069    -3.9094    30.0666    1.1312;
    55    59    0.04739    0.2158    0.05646    0    0    0    0    0    1    -360    360    -34.5085    -8.2639    35.1482    5.8794;
    59    60    0.0317    0.145    0.0376    0    0    0    0    0    1    -360    360    -43.3127    3.5731    43.9351    -4.4043;
    59    61    0.0328    0.15    0.0388    0    0    0    0    0    1    -360    360    -51.7142    5.0308    52.6345    -4.6252;
    60    61    0.00264    0.0135    0.01456    0    0    0    0    0    1    -360    360    -112.0609    8.5180    112.3993    -8.2264;
    60    62    0.0123    0.0561    0.01468    0    0    0    0    0    1    -360    360    -9.8743    -7.1137    9.8915    5.7373;
    61    62    0.00824    0.0376    0.0098    0    0    0    0    0    1    -360    360    25.4874    -13.8566    -25.4185    13.1980;
    63    59    0    0.0386    0    0    0    0    0.96    0    1    -360    360    151.7523    67.4842    -151.7523    -57.0284;
    63    64    0.00172    0.02    0.216    0    0    0    0    0    1    -360    360    -151.7523    -67.4842    152.2346    52.5060;
    64    61    0    0.0268    0    0    0    0    0.985    0    1    -360    360    30.5212    13.9889    -30.5212    -13.6861;
    38    65    0.00901    0.0986    1.046    0    0    0    0    0    1    -360    360    -181.4093    -57.0101    184.6207    -9.0705;
    64    65    0.00269    0.0302    0.38    0    0    0    0    0    1    -360    360    -182.7558    -66.4950    183.7485    40.0625;
    49    66    0.018    0.0919    0.0248    0    0    0    0    0    1    -360    360    -132.1826    4.3127    135.1815    8.3283;
    49    66    0.018    0.0919    0.0248    0    0    0    0    0    1    -360    360    -132.1826    4.3127    135.1815    8.3283;
    62    66    0.0482    0.218    0.0578    0    0    0    0    0    1    -360    360    -37.1662    -17.2635    37.9348    14.6752;
    62    67    0.0258    0.117    0.031    0    0    0    0    0    1    -360    360    -24.3068    -14.4131    24.5028    12.1462;
    65    66    0    0.037    0    0    0    0    0.935    0    1    -360    360    8.4623    72.2495    -8.4623    -70.5548;
    66    67    0.0224    0.1015    0.02682    0    0    0    0    0    1    -360    360    53.1645    19.2720    -52.5028    -19.1462;
    65    68    0.00138    0.016    0.638    0    0    0    0    0    1    -360    360    14.1685    -22.4316    -14.1645    -41.8489;
    47    69    0.0844    0.2778    0.07092    0    0    0    0    0    1    -360    360    -55.9088    11.6173    58.6499    -10.0617;
    49    69    0.0985    0.324    0.0828    0    0    0    0    0    1    -360    360    -46.5093    10.6326    48.7478    -12.0540;
    68    69    0    0.037    0    0    0    0    0.935    0    1    -360    360    -125.6580    112.8134    125.6580    -103.6489;
    69    70    0.03    0.127    0.122    0    0    0    0    0    1    -360    360    108.3479    16.0776    -104.9171    -13.9947;
    24    70    0.00221    0.4115    0.10198    0    0    0    0    0    1    -360    360    -6.2086    -2.9743    6.2096    -6.8019;
    70    71    0.00882    0.0355    0.00878    0    0    0    0    0    1    -360    360    16.6466    -12.3752    -16.6084    11.6766;
    24    72    0.0488    0.196    0.0488    0    0    0    0    0    1    -360    360    1.4734    3.3055    -1.4561    -7.9808;
    71    72    0.0446    0.18    0.04444    0    0    0    0    0    1    -360    360    10.5960    -0.9383    -10.5439    -3.1494;
    71    73    0.00866    0.0454    0.01178    0    0    0    0    0    1    -360    360    6.0124    -10.7383    -6.0000    9.6513;
    70    74    0.0401    0.1323    0.03368    0    0    0    0    0    1    -360    360    16.2015    12.8944    -16.0055    -15.4235;
    70    75    0.0428    0.141    0.036    0    0    0    0    0    1    -360    360    -0.1407    9.9415    0.2010    -13.1699;
    69    75    0.0405    0.122    0.124    0    0    0    0    0    1    -360    360    109.9723    20.4920    -105.1215    -18.3232;
    74    75    0.0123    0.0406    0.01034    0    0    0    0    0    1    -360    360    -51.9945    -6.1905    52.3612    6.4427;
    76    77    0.0444    0.148    0.0368    0    0    0    0    0    1    -360    360    -61.1704    -21.0319    63.2265    24.3873;
    69    77    0.0309    0.101    0.1038    0    0    0    0    0    1    -360    360    62.1049    6.8088    -60.9482    -13.8401;
    75    77    0.0601    0.1999    0.04978    0    0    0    0    0    1    -360    360    -34.6349    -9.5437    35.4388    7.3695;
    77    78    0.00376    0.0124    0.01264    0    0    0    0    0    1    -360    360    45.3729    6.6169    -45.2945    -7.6341;
    78    79    0.00546    0.0244    0.00648    0    0    0    0    0    1    -360    360    -25.7055    -18.3659    25.7590    17.9487;
    77    80    0.017    0.0485    0.0472    0    0    0    0    0    1    -360    360    -96.6161    -37.3971    98.3900    37.5170;
    77    80    0.0294    0.105    0.0228    0    0    0    0    0    1    -360    360    -44.3871    -20.5386    45.0686    20.5859;
    79    80    0.0156    0.0704    0.0187    0    0    0    0    0    1    -360    360    -64.7590    -29.5780    65.5268    31.0795;
    68    81    0.00175    0.0202    0.808    0    0    0    0    0    1    -360    360    -44.3034    -4.6053    44.3602    -75.5453;
    81    80    0    0.037    0    0    0    0    0.935    0    1    -360    360    -44.3602    75.5453    44.3602    -73.0469;
    77    82    0.0298    0.0853    0.08174    0    0    0    0    0    1    -360    360    -3.0869    17.3433    3.2256    -25.0781;
    82    83    0.0112    0.03665    0.03796    0    0    0    0    0    1    -360    360    -47.1089    24.5052    47.4427    -27.1079;
    83    84    0.0625    0.132    0.0258    0    0    0    0    0    1    -360    360    -24.7339    14.7313    25.2931    -16.0390;
    83    85    0.043    0.148    0.0348    0    0    0    0    0    1    -360    360    -42.7088    12.0694    43.6019    -12.3701;
    84    85    0.0302    0.0641    0.01234    0    0    0    0    0    1    -360    360    -36.2931    9.0390    36.7367    -9.2883;
    85    86    0.035    0.123    0.0276    0    0    0    0    0    1    -360    360    17.1725    -7.3537    -17.0531    5.0910;
    86    87    0.02828    0.2074    0.0445    0    0    0    0    0    1    -360    360    -3.9469    -15.0910    4.0000    11.0216;
    85    88    0.02    0.102    0.0276    0    0    0    0    0    1    -360    360    -50.3344    7.5817    50.8731    -7.5190;
    85    89    0.0239    0.173    0.047    0    0    0    0    0    1    -360    360    -71.1766    0.6609    72.4267    3.7343;
    88    89    0.0139    0.0712    0.01934    0    0    0    0    0    1    -360    360    -98.8731    -2.4810    100.2670    7.7015;
    89    90    0.0518    0.188    0.0528    0    0    0    0    0    1    -360    360    58.1738    -4.7172    -56.4360    5.7963;
    89    90    0.0238    0.0997    0.106    0    0    0    0    0    1    -360    360    110.7425    -5.4315    -107.8527    7.0419;
    90    91    0.0254    0.0836    0.0214    0    0    0    0    0    1    -360    360    1.2887    4.4615    -1.2803    -6.4998;
    89    92    0.0099    0.0505    0.0548    0    0    0    0    0    1    -360    360    201.7883    -6.5937    -197.7958    21.4945;
    89    92    0.0393    0.1581    0.0414    0    0    0    0    0    1    -360    360    63.6016    -6.4871    -62.0201    8.7204;
    91    92    0.0387    0.1272    0.03268    0    0    0    0    0    1    -360    360    -8.7197    -8.3468    8.7688    5.3302;
    92    93    0.0258    0.0848    0.0218    0    0    0    0    0    1    -360    360    57.7150    -10.7532    -56.8176    11.5679;
    92    94    0.0481    0.158    0.0406    0    0    0    0    0    1    -360    360    52.2561    -14.3110    -50.8481    14.9455;
    93    94    0.0223    0.0732    0.01876    0    0    0    0    0    1    -360    360    44.8176    -18.5679    -44.2864    18.4777;
    94    95    0.0132    0.0434    0.0111    0    0    0    0    0    1    -360    360    40.9769    9.3367    -40.7379    -9.6295;
    80    96    0.0356    0.182    0.0494    0    0    0    0    0    1    -360    360    18.9281    20.8521    -18.6280    -24.4235;
    82    96    0.0162    0.053    0.0544    0    0    0    0    0    1    -360    360    -10.1167    -6.8749    10.1366    1.6006;
    94    96    0.0269    0.0869    0.023    0    0    0    0    0    1    -360    360    19.9148    -9.4600    -19.7871    7.6111;
    80    97    0.0183    0.0934    0.0254    0    0    0    0    0    1    -360    360    26.3835    25.5375    -26.1432    -26.9837;
    80    98    0.0238    0.108    0.0286    0    0    0    0    0    1    -360    360    28.8637    8.3337    -28.6589    -10.4491;
    80    99    0.0454    0.206    0.0546    0    0    0    0    0    1    -360    360    19.4791    8.1842    -19.2678    -12.9629;
    92    100    0.0648    0.295    0.0472    0    0    0    0    0    1    -360    360    31.4525    -15.8126    -30.6817    14.5571;
    94    100    0.0178    0.058    0.0604    0    0    0    0    0    1    -360    360    4.2427    -49.2999    -3.8499    44.4928;
    95    96    0.0171    0.0547    0.01474    0    0    0    0    0    1    -360    360    -1.2621    -21.3705    1.3382    20.1787;
    96    97    0.0173    0.0885    0.024    0    0    0    0    0    1    -360    360    -11.0598    -19.9669    11.1432    17.9837;
    98    100    0.0397    0.179    0.0476    0    0    0    0    0    1    -360    360    -5.3411    2.4491    5.3612    -7.3134;
    99    100    0.018    0.0813    0.0216    0    0    0    0    0    1    -360    360    -22.7322    -4.5740    22.8255    2.7767;
    100    101    0.0277    0.1262    0.0328    0    0    0    0    0    1    -360    360    -16.7341    22.0734    16.9604    -24.3538;
    92    102    0.0123    0.0559    0.01464    0    0    0    0    0    1    -360    360    44.6234    -7.6683    -44.3686    7.3866;
    101    102    0.0246    0.112    0.0294    0    0    0    0    0    1    -360    360    -38.9604    9.3538    39.3686    -10.3866;
    100    103    0.016    0.0525    0.0536    0    0    0    0    0    1    -360    360    121.0844    -4.3009    -118.8159    6.2885;
    100    104    0.0451    0.204    0.0541    0    0    0    0    0    1    -360    360    56.4215    10.6215    -54.9548    -9.3357;
    103    104    0.0466    0.1584    0.0407    0    0    0    0    0    1    -360    360    32.3103    7.9294    -31.7783    -10.0776;
    103    105    0.0535    0.1625    0.0408    0    0    0    0    0    1    -360    360    42.9493    6.5517    -41.9244    -7.3851;
    100    106    0.0605    0.229    0.062    0    0    0    0    0    1    -360    360    60.5733    9.1721    -58.3374    -6.7831;
    104    105    0.00994    0.0378    0.00986    0    0    0    0    0    1    -360    360    48.7331    0.0651    -48.4827    -0.0377;
    105    106    0.014    0.0547    0.01434    0    0    0    0    0    1    -360    360    8.6815    4.5469    -8.6661    -5.8191;
    105    107    0.053    0.183    0.0472    0    0    0    0    0    1    -360    360    26.7335    -1.8536    -26.3275    -1.0857;
    105    108    0.0261    0.0703    0.01844    0    0    0    0    0    1    -360    360    23.9922    -10.6078    -23.8046    9.3909;
    106    107    0.053    0.183    0.0472    0    0    0    0    0    1    -360    360    24.0035    -3.3978    -23.6725    0.2186;
    108    109    0.0105    0.0288    0.0076    0    0    0    0    0    1    -360    360    21.8046    -10.3909    -21.7399    9.8575;
    103    110    0.03906    0.1813    0.0461    0    0    0    0    0    1    -360    360    60.5563    3.2304    -59.1140    -1.0263;
    109    110    0.0278    0.0762    0.0202    0    0    0    0    0    1    -360    360    13.7399    -12.8575    -13.6416    11.2252;
    110    111    0.022    0.0755    0.02    0    0    0    0    0    1    -360    360    -35.7029    0.9561    36.0000    -1.8438;
    110    112    0.0247    0.064    0.062    0    0    0    0    0    1    -360    360    69.4586    -30.6142    -68.0000    28.5117;
    17    113    0.00913    0.0301    0.00768    0    0    0    0    0    1    -360    360    2.0594    6.0426    -2.0552    -6.7877;
    32    113    0.0615    0.203    0.0518    0    0    0    0    0    1    -360    360    4.1075    -17.5299    -3.9448    13.1082;
    32    114    0.0135    0.0612    0.01628    0    0    0    0    0    1    -360    360    9.3606    2.1679    -9.3466    -3.6112;
    27    115    0.0164    0.0741    0.01972    0    0    0    0    0    1    -360    360    20.7342    4.6660    -20.6534    -6.1345;
    114    115    0.0023    0.0104    0.00276    0    0    0    0    0    1    -360    360    1.3466    0.6112    -1.3466    -0.8655;
    68    116    0.00034    0.00405    0.164    0    0    0    0    0    1    -360    360    184.1259    -66.3593    -184.0000    51.3237;
    12    117    0.0329    0.14    0.0358    0    0    0    0    0    1    -360    360    20.1525    5.1973    -20.0000    -8.0000;
    75    118    0.0145    0.0481    0.01198    0    0    0    0    0    1    -360    360    40.1942    23.5941    -39.8535    -23.5641;
    76    118    0.0164    0.0544    0.01356    0    0    0    0    0    1    -360    360    -6.8296    -9.6991    6.8535    8.5641;
];

%%-----  OPF Data  -----%%
%% generator cost data
%    1    startup    shutdown    n    x1    y1    ...    xn    yn
%    2    startup    shutdown    n    c(n-1)    ...    c0
mpc.gencost = [
    2    0    0    3    0.01    40    0;
    2    0    0    3    0.01    40    0;
    2    0    0    3    0.01    40    0;
    2    0    0    3    0.01    40    0;
    2    0    0    3    0.0222222222    20    0;
    2    0    0    3    0.117647059    20    0;
    2    0    0    3    0.01    40    0;
    2    0    0    3    0.01    40    0;
    2    0    0    3    0.01    40    0;
    2    0    0    3    0.01    40    0;
    2    0    0    3    0.0454545455    20    0;
    2    0    0    3    0.0318471338    20    0;
    2    0    0    3    0.01    40    0;
    2    0    0    3    1.42857143    20    0;
    2    0    0    3    0.01    40    0;
    2    0    0    3    0.01    40    0;
    2    0    0    3    0.01    40    0;
    2    0    0    3    0.01    40    0;
    2    0    0    3    0.01    40    0;
    2    0    0    3    0.526315789    20    0;
    2    0    0    3    0.0490196078    20    0;
    2    0    0    3    0.208333333    20    0;
    2    0    0    3    0.01    40    0;
    2    0    0    3    0.01    40    0;
    2    0    0    3    0.064516129    20    0;
    2    0    0    3    0.0625    20    0;
    2    0    0    3    0.01    40    0;
    2    0    0    3    0.0255754476    20    0;
    2    0    0    3    0.0255102041    20    0;
    2    0    0    3    0.0193648335    20    0;
    2    0    0    3    0.01    40    0;
    2    0    0    3    0.01    40    0;
    2    0    0    3    0.01    40    0;
    2    0    0    3    0.01    40    0;
    2    0    0    3    0.01    40    0;
    2    0    0    3    0.01    40    0;
    2    0    0    3    0.0209643606    20    0;
    2    0    0    3    0.01    40    0;
    2    0    0    3    2.5    20    0;
    2    0    0    3    0.0164744646    20    0;
    2    0    0    3    0.01    40    0;
    2    0    0    3    0.01    40    0;
    2    0    0    3    0.01    40    0;
    2    0    0    3    0.01    40    0;
    2    0    0    3    0.0396825397    20    0;
    2    0    0    3    0.25    20    0;
    2    0    0    3    0.01    40    0;
    2    0    0    3    0.01    40    0;
    2    0    0    3    0.01    40    0;
    2    0    0    3    0.01    40    0;
    2    0    0    3    0.277777778    20    0;
    2    0    0    3    0.01    40    0;
    2    0    0    3    0.01    40    0;
    2    0    0    3    0.01    40    0;
];

%% bus names
mpc.bus_name = {
    'Riversde  V2';
    'Pokagon   V2';
    'HickryCk  V2';
    'NwCarlsl  V2';
    'Olive     V2';
    'Kankakee  V2';
    'JacksnRd  V2';
    'Olive     V1';
    'Bequine   V1';
    'Breed     V1';
    'SouthBnd  V2';
    'TwinBrch  V2';
    'Concord   V2';
    'GoshenJt  V2';
    'FtWayne   V2';
    'N. E.     V2';
    'Sorenson  V2';
    'McKinley  V2';
    'Lincoln   V2';
    'Adams     V2';
    'Jay       V2';
    'Randolph  V2';
    'CollCrnr  V2';
    'Trenton   V2';
    'TannrsCk  V2';
    'TannrsCk  V1';
    'Madison   V2';
    'Mullin    V2';
    'Grant     V2';
    'Sorenson  V1';
    'DeerCrk   V2';
    'Delaware  V2';
    'Haviland  V2';
    'Rockhill  V2';
    'WestLima  V2';
    'Sterling  V2';
    'EastLima  V2';
    'EastLima  V1';
    'NwLibrty  V2';
    'West End  V2';
    'S.Tiffin  V2';
    'Howard    V2';
    'S.Kenton  V2';
    'WMVernon  V2';
    'N.Newark  V2';
    'W.Lancst  V2';
    'Crooksvl  V2';
    'Zanesvll  V2';
    'Philo     V2';
    'WCambrdg  V2';
    'Newcmrst  V2';
    'SCoshoct  V2';
    'Wooster   V2';
    'Torrey    V2';
    'Wagenhls  V2';
    'Sunnysde  V2';
    'WNwPhil1  V2';
    'WNwPhil2  V2';
    'Tidd      V2';
    'SWKammer  V2';
    'W.Kammer  V2';
    'Natrium   V2';
    'Tidd      V1';
    'Kammer    V1';
    'Muskngum  V1';
    'Muskngum  V2';
    'Summerfl  V2';
    'Sporn     V1';
    'Sporn     V2';
    'Portsmth  V2';
    'NPortsmt  V2';
    'Hillsbro  V2';
    'Sargents  V2';
    'Bellefnt  V2';
    'SthPoint  V2';
    'Darrah    V2';
    'Turner    V2';
    'Chemical  V2';
    'CapitlHl  V2';
    'CabinCrk  V2';
    'Kanawha   V1';
    'Logan     V2';
    'Sprigg    V2';
    'BetsyLne  V2';
    'BeaverCk  V2';
    'Hazard    V2';
    'Pinevlle  V3';
    'Fremont   V2';
    'ClinchRv  V2';
    'Holston   V2';
    'HolstonT  V2';
    'Saltvlle  V2';
    'Tazewell  V2';
    'Switchbk  V2';
    'Caldwell  V2';
    'Baileysv  V2';
    'Sundial   V2';
    'Bradley   V2';
    'Hinton    V2';
    'Glen Lyn  V2';
    'Wythe     V2';
    'Smythe    V2';
    'Claytor   V2';
    'Hancock   V2';
    'Roanoke   V2';
    'Cloverdl  V2';
    'Reusens   V2';
    'Blaine    V2';
    'Franklin  V2';
    'Fieldale  V2';
    'DanRiver  V2';
    'Danville  V2';
    'Deer Crk  V2';
    'WMedford  V2';
    'Medford   V2';
    'KygerCrk  V2';
    'Corey     V2';
    'WHuntngd  V2';
};
